<?xml version="1.0" encoding="UTF-8"?>

<!-- generated on Tue Apr 25 11:38:11 2023 by Eclipse SUMO polyconvert Version 1.8.0
<configuration xmlns:xsi="http://www.w3.org/2001/XMLSchema-instance" xsi:noNamespaceSchemaLocation="http://sumo.dlr.de/xsd/polyconvertConfiguration.xsd">

    <input>
        <net-file value="guanggong.net.xml"/>
        <osm-files value="map.osm"/>
    </input>

    <output>
        <output-file value="guanggong.poly.xml"/>
    </output>

    <processing>
        <poi-layer-offset value="5"/>
    </processing>

</configuration>
-->

<additional xmlns:xsi="http://www.w3.org/2001/XMLSchema-instance" xsi:noNamespaceSchemaLocation="http://sumo.dlr.de/xsd/additional_file.xsd">
    <location netOffset="-756776.06,-2525109.59" convBoundary="-563.52,-6134.38,36194.95,35355.28" origBoundary="113.361746,22.741251,113.860167,23.131647" projParameter="+proj=utm +zone=49 +ellps=WGS84 +datum=WGS84 +units=m +no_defs"/>

    <poly id="1012132174" type="industrial" color="209,209,204" fill="1" layer="-3.00" shape="5085.489507,17235.768506 5748.839425,16976.985662 6068.915149,17330.874184 5545.137198,17563.142817 5085.489507,17235.768506"/>
    <poly id="1012132175" type="industrial" color="209,209,204" fill="1" layer="-3.00" shape="6120.166236,16226.255817 5700.691220,16214.779045 5694.876759,16691.704846 6029.326317,16698.373440 6028.283479,16758.082144 6253.434736,16764.498396 6150.165901,16467.360887 6119.506015,16359.804328 6120.166236,16226.255817"/>
    <poly id="1012132176" type="industrial" color="209,209,204" fill="1" layer="-3.00" shape="5586.905120,16089.186353 5674.033243,16116.424405 6153.777249,16117.328809 6169.132297,15954.993538 6157.813275,15790.519104 5756.003619,15578.584784 5712.218983,15697.296851 5705.687563,15975.937129 5600.603329,15973.273938 5586.905120,16089.186353"/>
    <poly id="1012132177" type="industrial" color="209,209,204" fill="1" layer="-3.00" shape="5767.198977,15575.666251 6103.101553,15753.838248 6137.893564,15688.956817 6084.591812,15540.348862 5852.286785,15417.073820 5767.198977,15575.666251"/>
    <poly id="1012132178" type="industrial" color="209,209,204" fill="1" layer="-3.00" shape="6286.066106,15494.512892 6314.362067,15520.737575 6477.202839,15526.443038 6526.382549,15509.196579 6540.001156,15497.999081 6621.880108,15474.654035 6735.661148,15435.656085 6740.414330,15273.722491 6887.000075,15277.241650 6897.526923,15004.852800 6452.860730,14999.932247 6342.490710,15227.691655 6305.487027,15315.682499 6288.618395,15403.061137 6286.066106,15494.512892"/>
    <poly id="1012132182" type="industrial" color="209,209,204" fill="1" layer="-3.00" shape="6928.204061,16635.523076 7390.951894,16644.160396 7394.750821,16441.197818 7368.364483,16423.303978 7267.442900,16421.532942 6958.530910,16528.113207 6929.512853,16564.937018 6928.204061,16635.523076"/>
    <poly id="1012132183" type="industrial" color="209,209,204" fill="1" layer="-3.00" shape="5342.784560,18786.528257 5376.628997,18613.090763 5756.216766,18300.845604 5769.655592,18289.788642 5881.260567,18423.957039 5863.411710,18445.486046 5380.319172,18833.922548 5342.784560,18786.528257"/>
    <poly id="1012132184" type="industrial" color="209,209,204" fill="1" layer="-3.00" shape="5380.319172,18833.922548 5863.411710,18445.486046 5975.936321,18583.860112 5733.863151,18778.414759 5492.763924,18972.202860 5380.319172,18833.922548"/>
    <poly id="1012132185" type="industrial" color="209,209,204" fill="1" layer="-3.00" shape="5756.216766,18300.845604 5376.628997,18613.090763 5337.870227,18527.002429 5380.306927,18413.330660 5410.361375,18393.742623 5519.608240,18111.496879 5685.567539,18244.317824 5756.216766,18300.845604"/>
    <poly id="1012132186" type="industrial" color="209,209,204" fill="1" layer="-3.00" shape="5716.857285,19211.742106 5934.632481,19028.741890 5959.278979,19008.029937 5947.998577,18960.771409 6169.292018,18815.145453 6326.170108,19113.756019 6379.314958,19199.889098 6000.885004,19524.249693 5716.857285,19211.742106"/>
    <poly id="1012132187" type="industrial" color="209,209,204" fill="1" layer="-3.00" shape="5733.863151,18778.414759 5934.632481,19028.741890 5959.278979,19008.029937 5947.998577,18960.771409 6169.292018,18815.145453 6138.227460,18749.323390 6164.234755,18728.868196 6054.914291,18603.391371 6036.322626,18622.214492 5996.115725,18576.334132 5975.936321,18583.860112 5733.863151,18778.414759"/>
    <poly id="1013484452" type="leisure" color="207,245,201" fill="1" layer="-2.00" shape="10843.681560,9753.927007 10843.596246,9723.418474 10827.877676,9723.461144 10827.983548,9753.970038 10843.681560,9753.927007"/>
    <poly id="1013484452#1" type="sport" color="79,230,125" fill="1" layer="-2.00" shape="10843.681560,9753.927007 10843.596246,9723.418474 10827.877676,9723.461144 10827.983548,9753.970038 10843.681560,9753.927007"/>
    <poly id="1013484453" type="leisure" color="207,245,201" fill="1" layer="-2.00" shape="10863.325917,9753.654771 10863.230379,9723.146052 10847.522070,9723.188884 10847.617640,9753.697599 10863.325917,9753.654771"/>
    <poly id="1013484453#1" type="sport" color="79,230,125" fill="1" layer="-2.00" shape="10863.325917,9753.654771 10863.230379,9723.146052 10847.522070,9723.188884 10847.617640,9753.697599 10863.325917,9753.654771"/>
    <poly id="1013484454" type="leisure" color="207,245,201" fill="1" layer="-2.00" shape="10759.412927,9688.615516 10786.410008,9689.393250 10786.857437,9673.998081 10759.860525,9673.209270 10759.412927,9688.615516"/>
    <poly id="1013484454#1" type="sport" color="79,230,125" fill="1" layer="-2.00" shape="10759.412927,9688.615516 10786.410008,9689.393250 10786.857437,9673.998081 10759.860525,9673.209270 10759.412927,9688.615516"/>
    <poly id="1013484455" type="leisure" color="207,245,201" fill="1" layer="-2.00" shape="10724.058182,9621.844261 10720.919459,9572.443339 10696.458207,9573.971277 10699.607272,9623.372368 10724.058182,9621.844261"/>
    <poly id="1061995601" type="leisure" color="207,245,201" fill="1" layer="-2.00" shape="10703.353762,9801.848662 10721.249044,9802.365274 10722.141240,9771.718954 10704.245922,9771.202345 10703.353762,9801.848662"/>
    <poly id="1061995601#1" type="sport" color="79,230,125" fill="1" layer="-2.00" shape="10703.353762,9801.848662 10721.249044,9802.365274 10722.141240,9771.718954 10704.245922,9771.202345 10703.353762,9801.848662"/>
    <poly id="1071697039" type="industrial" color="209,209,204" fill="1" layer="-3.00" shape="4316.605246,22122.991305 4642.053978,22266.536439 4654.622329,22302.868382 4436.719715,22808.978518 4385.679459,22833.255167 4008.808026,22673.506805 3998.261821,22647.061646 4196.762212,22180.002260 4240.686924,22185.142956 4285.002364,22168.405623 4316.605246,22122.991305"/>
    <poly id="1071697040" type="industrial" color="209,209,204" fill="1" layer="-3.00" shape="3632.070830,22505.028289 3618.327252,22473.054034 3843.234792,21941.880542 3869.848596,21930.308665 4197.556512,22070.591368 4210.383660,22092.699308 4177.874129,22127.150047 4111.344085,22155.535544 4051.879113,22221.253967 4050.173667,22256.240203 4059.080453,22313.295767 4053.540902,22378.854274 4006.817913,22471.045016 3966.361773,22519.585975 3923.644337,22571.367702 3900.746478,22622.396737 3632.070830,22505.028289"/>
    <poly id="1071697041" type="industrial" color="209,209,204" fill="1" layer="-3.00" shape="3605.863410,22557.097258 3884.433187,22674.637168 3896.139139,22761.283095 3877.754539,22805.819518 3832.814525,22858.659805 3667.418289,23258.436930 3319.544892,23139.709513 3570.499689,22565.237721 3605.863410,22557.097258"/>
    <poly id="1071697042" type="industrial" color="209,209,204" fill="1" layer="-3.00" shape="3942.339898,22750.439559 4392.584566,22939.210058 4282.632443,23198.564731 3998.431334,23079.399951 4052.731390,22951.283518 3886.713645,22881.713534 3942.339898,22750.439559"/>
    <poly id="1071697043" type="industrial" color="209,209,204" fill="1" layer="-3.00" shape="3000.540109,22298.008168 3534.389989,22525.318401 3319.341456,23024.818986 2970.266884,23038.463192 3124.563575,22679.797726 2880.859873,22576.095191 3000.540109,22298.008168"/>
    <poly id="1071697050" type="industrial" color="209,209,204" fill="1" layer="-3.00" shape="3610.710473,23570.434159 3678.583664,23417.598138 3773.409354,23459.235831 3705.555596,23612.082938 3610.710473,23570.434159"/>
    <poly id="1071697051" type="industrial" color="209,209,204" fill="1" layer="-3.00" shape="3720.617316,23621.807612 3794.115020,23453.445499 3963.256074,23526.471327 3904.689008,23660.641486 3766.589802,23641.665236 3720.617316,23621.807612"/>
    <poly id="1071697052" type="industrial" color="209,209,204" fill="1" layer="-3.00" shape="3946.516429,23595.591670 3971.801723,23531.661700 4110.511723,23585.167667 4084.402264,23653.404722 3946.516429,23595.591670"/>
    <poly id="1071697053" type="industrial" color="209,209,204" fill="1" layer="-3.00" shape="3674.595315,23391.521895 3708.950757,23304.889029 3923.470381,23389.018476 3889.092691,23475.683836 3674.595315,23391.521895"/>
    <poly id="1071697054" type="industrial" color="209,209,204" fill="1" layer="-3.00" shape="3887.064969,23485.543917 3937.240339,23356.812648 4165.271660,23444.748665 4110.511723,23585.167667 3971.801723,23531.661700 3976.364029,23519.961911 3887.064969,23485.543917"/>
    <poly id="1071697055" type="industrial" color="209,209,204" fill="1" layer="-3.00" shape="3220.460705,23392.775811 3315.974467,23174.685501 3651.736554,23289.135995 3563.501399,23471.692490 3532.343163,23489.391073 3507.403735,23532.905394 3220.460705,23392.775811"/>
    <poly id="1071697057" type="industrial" color="209,209,204" fill="1" layer="-3.00" shape="3304.854605,23839.769440 3300.382961,23809.008811 3325.921978,23778.768525 3402.431256,23742.785826 3429.777982,23753.210844 3504.156993,23599.445540 3712.532024,23701.738257 3975.322659,23791.704973 3912.972415,23876.853489 3895.172063,23893.132372 3872.037936,23881.117494 3790.524270,23917.022006 3695.902386,23939.424284 3584.042244,23945.770775 3490.880281,23932.541137 3373.333464,23882.410704 3304.854605,23839.769440"/>
    <poly id="1072465466" type="landuse" color="194,194,130" fill="1" layer="-3.00" shape="4270.681646,7818.439541 4282.404749,7718.737750 4333.428321,7720.162535 4345.954391,7825.879278 4270.681646,7818.439541"/>
    <poly id="1072465467" type="landuse" color="194,194,130" fill="1" layer="-3.00" shape="4319.399106,7786.349395 4316.003829,7789.138475 4311.870458,7790.673749 4307.464322,7790.763808 4303.278090,7789.417166 4299.761082,7786.774559 4297.358405,7783.220424 4296.228732,7779.078847 4296.497647,7774.806310 4298.126700,7770.845380 4300.964922,7767.614518 4304.688001,7765.462705 4308.902075,7764.604750 4313.173946,7765.155056 4317.053337,7767.028275 4320.112028,7770.050792 4322.056576,7773.973760 4322.607628,7778.326954 4321.681425,7782.610293 4319.399106,7786.349395"/>
    <poly id="1072465467#1" type="man_made" color="255,230,230" fill="1" layer="-1.00" shape="4319.399106,7786.349395 4316.003829,7789.138475 4311.870458,7790.673749 4307.464322,7790.763808 4303.278090,7789.417166 4299.761082,7786.774559 4297.358405,7783.220424 4296.228732,7779.078847 4296.497647,7774.806310 4298.126700,7770.845380 4300.964922,7767.614518 4304.688001,7765.462705 4308.902075,7764.604750 4313.173946,7765.155056 4317.053337,7767.028275 4320.112028,7770.050792 4322.056576,7773.973760 4322.607628,7778.326954 4321.681425,7782.610293 4319.399106,7786.349395"/>
    <poly id="1086496049" type="building" color="255,230,230" fill="1" layer="-1.00" shape="8664.427466,13549.123356 8664.414752,13537.609724 8677.920870,13538.235493 8677.122807,13549.745925 8664.427466,13549.123356"/>
    <poly id="1086496049#1" type="man_made" color="255,230,230" fill="1" layer="-1.00" shape="8664.427466,13549.123356 8664.414752,13537.609724 8677.920870,13538.235493 8677.122807,13549.745925 8664.427466,13549.123356"/>
    <poly id="1086496050" type="building" color="255,230,230" fill="1" layer="-1.00" shape="8693.073798,13610.253491 8693.061113,13598.739856 8706.567177,13599.365656 8705.769089,13610.876089 8693.073798,13610.253491"/>
    <poly id="1086496050#1" type="man_made" color="255,230,230" fill="1" layer="-1.00" shape="8693.073798,13610.253491 8693.061113,13598.739856 8706.567177,13599.365656 8705.769089,13610.876089 8693.073798,13610.253491"/>
    <poly id="1086496051" type="building" color="255,230,230" fill="1" layer="-1.00" shape="8695.080899,13593.035357 8695.078668,13581.510825 8708.574488,13582.136445 8707.776204,13593.657955 8695.080899,13593.035357"/>
    <poly id="1086496051#1" type="man_made" color="255,230,230" fill="1" layer="-1.00" shape="8695.080899,13593.035357 8695.078668,13581.510825 8708.574488,13582.136445 8707.776204,13593.657955 8695.080899,13593.035357"/>
    <poly id="1086496052" type="building" color="255,230,230" fill="1" layer="-1.00" shape="8831.816453,13570.656242 8832.799803,13552.134637 8845.433198,13552.778419 8844.501524,13571.278773 8831.816453,13570.656242"/>
    <poly id="1086496052#1" type="man_made" color="255,230,230" fill="1" layer="-1.00" shape="8831.816453,13570.656242 8832.799803,13552.134637 8845.433198,13552.778419 8844.501524,13571.278773 8831.816453,13570.656242"/>
    <poly id="1086496053" type="building" color="255,230,230" fill="1" layer="-1.00" shape="8765.178769,13491.237068 8765.430555,13479.861064 8784.706334,13480.987522 8784.603255,13492.078036 8765.178769,13491.237068"/>
    <poly id="1086496053#1" type="man_made" color="255,230,230" fill="1" layer="-1.00" shape="8765.178769,13491.237068 8765.430555,13479.861064 8784.706334,13480.987522 8784.603255,13492.078036 8765.178769,13491.237068"/>
    <poly id="1086496054" type="building" color="255,230,230" fill="1" layer="-1.00" shape="8655.625658,13707.352475 8656.618869,13688.842136 8669.242074,13689.474523 8668.320864,13707.975050 8655.625658,13707.352475"/>
    <poly id="1086496054#1" type="man_made" color="255,230,230" fill="1" layer="-1.00" shape="8655.625658,13707.352475 8656.618869,13688.842136 8669.242074,13689.474523 8668.320864,13707.975050 8655.625658,13707.352475"/>
    <poly id="1086496055" type="building" color="255,230,230" fill="1" layer="-1.00" shape="8682.930336,13716.454719 8683.841246,13707.860641 8700.993628,13708.905291 8700.466632,13717.262345 8682.930336,13716.454719"/>
    <poly id="1086496055#1" type="man_made" color="255,230,230" fill="1" layer="-1.00" shape="8682.930336,13716.454719 8683.841246,13707.860641 8700.993628,13708.905291 8700.466632,13717.262345 8682.930336,13716.454719"/>
    <poly id="1086496056" type="building" color="255,230,230" fill="1" layer="-1.00" shape="8806.871496,14062.324048 8807.854669,14043.813515 8841.457178,14045.525143 8840.916995,14063.356451 8806.871496,14062.324048"/>
    <poly id="1086496056#1" type="man_made" color="255,230,230" fill="1" layer="-1.00" shape="8806.871496,14062.324048 8807.854669,14043.813515 8841.457178,14045.525143 8840.916995,14063.356451 8806.871496,14062.324048"/>
    <poly id="1086496057" type="building" color="255,230,230" fill="1" layer="-1.00" shape="8808.274782,14031.044230 8809.257954,14012.533697 8841.639089,14013.669723 8841.881617,14032.512144 8808.274782,14031.044230"/>
    <poly id="1086496057#1" type="man_made" color="255,230,230" fill="1" layer="-1.00" shape="8808.274782,14031.044230 8809.257954,14012.533697 8841.639089,14013.669723 8841.881617,14032.512144 8808.274782,14031.044230"/>
    <poly id="1086496058" type="building" color="255,230,230" fill="1" layer="-1.00" shape="8855.121414,14064.515566 8855.696858,14012.089176 8875.959077,14013.111330 8873.927024,14065.489880 8855.121414,14064.515566"/>
    <poly id="1086496058#1" type="man_made" color="255,230,230" fill="1" layer="-1.00" shape="8855.121414,14064.515566 8855.696858,14012.089176 8875.959077,14013.111330 8873.927024,14065.489880 8855.121414,14064.515566"/>
    <poly id="1086496059" type="building" color="255,230,230" fill="1" layer="-1.00" shape="8775.233118,14062.143084 8777.224537,13994.582524 8795.496703,13995.547326 8794.038920,14063.106220 8775.233118,14062.143084"/>
    <poly id="1086496059#1" type="man_made" color="255,230,230" fill="1" layer="-1.00" shape="8775.233118,14062.143084 8777.224537,13994.582524 8795.496703,13995.547326 8794.038920,14063.106220 8775.233118,14062.143084"/>
    <poly id="1089895197" type="building" color="255,230,230" fill="1" layer="-1.00" shape="3456.761888,22001.296221 3545.399660,22041.294883 3625.870912,21861.384331 3532.701777,21817.638949 3456.761888,22001.296221"/>
    <poly id="1089895198" type="building" color="255,230,230" fill="1" layer="-1.00" shape="3607.779599,22055.197372 3681.840355,22085.780147 3758.340273,21923.198316 3685.334409,21884.389329 3607.779599,22055.197372"/>
    <poly id="1090321757" type="residential" color="235,235,227" fill="1" layer="-3.00" shape="11450.353306,10114.348229 11602.967528,10111.033210 11594.975022,10049.566373 11585.280750,10005.855003 11573.827318,9968.694745 11557.222582,9926.777631 11536.112469,9890.542800 11522.607658,9875.786045 11507.372484,9865.386794 11486.305804,9857.886979 11465.996759,9853.968880 11440.978596,9851.607175 11450.353306,10114.348229"/>
    <poly id="1090321786" type="amenity" color="237,199,199" fill="1" layer="-1.00" shape="11488.035829,9490.202716 11659.951285,9492.438828 11659.758483,9510.786264 11773.866384,9512.815855 11852.136877,9532.548331 11696.630721,9840.671751 11681.628693,9836.792354 11665.856836,9830.018104 11604.969442,9783.113549 11586.488409,9770.495629 11572.053617,9758.381849 11560.557004,9745.577864 11549.668936,9729.726233 11541.655026,9716.208481 11534.839415,9699.963840 11531.510179,9685.110949 11530.173040,9666.769574 11532.371443,9512.477573 11487.762861,9511.917458 11488.035829,9490.202716"/>
    <poly id="1090321796" type="residential" color="235,235,227" fill="1" layer="-3.00" shape="11490.944405,9457.675016 11865.851485,9465.716335 11869.319062,9472.205290 11873.782939,9476.938944 11880.868300,9480.899226 11886.491285,9482.805579 11948.699525,9339.621125 11978.821489,9261.224071 12008.052087,9176.971246 12084.179603,8924.505678 12100.951648,8853.251287 12059.760264,8844.594606 12094.014264,8652.985381 11994.426657,8600.825186 12016.348895,8545.353742 11862.825826,8490.328656 11796.301140,8746.811070 11731.836244,8934.326106 11669.566149,9042.936155 11614.610874,9016.172675 11607.205062,9030.801494 11661.852008,9058.157868 11634.246842,9110.569846 11610.640716,9168.471764 11582.373168,9255.856097 11562.465039,9337.925896 11547.348470,9428.835201 11491.192535,9428.114184 11490.944405,9457.675016"/>
    <poly id="1090981724" type="parking" color="184,184,179" fill="1" layer="-1.00" shape="9385.494831,6731.568590 9403.786199,6733.696964 9409.842481,6681.921416 9391.540589,6679.803938 9385.494831,6731.568590"/>
    <poly id="1090981732" type="water" color="181,209,209" fill="1" layer="-4.00" shape="9445.979513,6759.871512 9446.023778,6739.870706 9446.796147,6713.511030 9453.390039,6685.436580 9462.979225,6660.451146 9476.253755,6650.678653 9486.924507,6650.567442 9489.590281,6655.456895 9486.073357,6664.492613 9481.201129,6681.682391 9477.098753,6706.465282 9474.057242,6740.974005 9469.520196,6756.042096 9459.586701,6766.183714 9450.732481,6766.936400 9445.979513,6759.871512"/>
    <poly id="1090981734" type="water" color="181,209,209" fill="1" layer="-4.00" shape="9406.810789,6896.610756 9420.641379,6882.072033 9432.421584,6874.345390 9440.960719,6866.993828 9446.980993,6855.741637 9451.046162,6845.308259 9453.372645,6835.065877 9450.292862,6826.866932 9442.384850,6822.871366 9434.939900,6823.482664 9430.479772,6825.443044 9425.964230,6830.549512 9424.448185,6837.337752 9425.371275,6846.141412 9425.186294,6856.643141 9421.453786,6860.433657 9414.070650,6863.949329 9405.410205,6865.946543 9399.476791,6872.269139 9396.273922,6882.717714 9395.888612,6892.351579 9400.343663,6896.507930 9406.810789,6896.610756"/>
    <poly id="1090981743" type="parking" color="184,184,179" fill="1" layer="-1.00" shape="9689.038262,6981.823625 9706.077197,6983.919239 9712.754612,6930.171098 9695.725881,6928.075663 9689.038262,6981.823625"/>
    <poly id="1090981746" type="parking" color="184,184,179" fill="1" layer="-1.00" shape="9751.574178,6515.841210 9769.611542,6518.996075 9778.063983,6471.163381 9760.016296,6468.008330 9751.574178,6515.841210"/>
    <poly id="1090981777" type="residential" color="235,235,227" fill="1" layer="-3.00" shape="8962.594595,6992.158268 9000.193006,7001.097117 9160.554446,7069.064634 9145.555196,7148.286055 9117.219344,7275.863809 9056.383838,7278.106667 8953.940216,7294.522149 8939.420825,7284.049965 8936.484757,7056.291300 8940.694835,7037.593824 8962.594595,6992.158268"/>
    <poly id="1090981778" type="residential" color="235,235,227" fill="1" layer="-3.00" shape="8755.098444,7097.904074 8756.323387,7059.163713 8896.805628,7057.078526 8907.082232,7069.437407 8912.784894,7282.362651 8891.069834,7303.888308 8709.092188,7330.243216 8693.239518,7316.755945 8689.107038,7184.363287 8717.654368,7183.047532 8717.603572,7147.952623 8729.764520,7117.936903 8755.098444,7097.904074"/>
    <poly id="1090981779" type="commercial" color="209,209,204" fill="1" layer="-3.00" shape="8473.734997,7345.978132 8486.076877,7354.749440 8650.224358,7333.896308 8662.972753,7318.939084 8661.104581,7249.937178 8465.952382,7252.372133 8467.196297,7323.645667 8473.734997,7345.978132"/>
    <poly id="1090981780" type="building" color="255,230,230" fill="1" layer="-1.00" shape="8532.873588,7281.283114 8533.453668,7316.664301 8582.968615,7315.871644 8582.378580,7280.479186 8532.873588,7281.283114"/>
    <poly id="1090981782" type="building" color="255,230,230" fill="1" layer="-1.00" shape="8489.338425,7236.227454 8522.167631,7236.061385 8522.018674,7207.702136 8521.552452,7187.470873 8519.784934,7182.874411 8516.686655,7178.631345 8511.728168,7173.901294 8508.239069,7172.033812 8504.529658,7171.603012 8501.100615,7172.163356 8498.003264,7173.715745 8493.181814,7178.141124 8490.051084,7183.349703 8489.056667,7187.354698 8489.189407,7207.868211 8489.338425,7236.227454"/>
    <poly id="1096616249" type="amenity" color="237,199,199" fill="1" layer="-1.00" shape="11227.849767,12260.480025 11277.145836,12229.596954 11267.061216,12213.693096 11217.765321,12244.565125 11227.849767,12260.480025"/>
    <poly id="1096616249#1" type="building" color="255,230,230" fill="1" layer="-1.00" shape="11227.849767,12260.480025 11277.145836,12229.596954 11267.061216,12213.693096 11217.765321,12244.565125 11227.849767,12260.480025"/>
    <poly id="1096616250" type="tourism" color="207,245,201" fill="1" layer="-2.00" shape="11197.958103,11302.191596 11273.660704,11310.518038 11270.219072,11183.009338 11194.309960,11174.136332 11197.958103,11302.191596"/>
    <poly id="1096796631" type="water" color="181,209,209" fill="0" layer="-4.00" shape="11745.969227,9966.559330 11770.553062,9884.849917 11868.582919,9699.317777 11970.124067,9501.791909 12032.709344,9327.674961 12088.465534,9104.135056 12161.799514,8820.680483 12231.038109,8644.477191 12345.095836,8363.366400 12378.005588,8278.525689 12434.318440,8116.321165 12466.862751,7990.394960 12486.865660,7887.782311 12501.280704,7747.282191"/>
    <poly id="1096796637" type="water" color="181,209,209" fill="0" layer="-4.00" shape="10430.165327,9144.274868 10501.056015,9017.905973 10551.260977,8935.551796 10660.507805,8784.430869 10793.347011,8607.432460 10809.530463,8580.060155 10842.178919,8524.500548 10894.467693,8464.368957 10959.844939,8380.644594 10978.599972,8363.457451 11001.121843,8335.920627 11021.762655,8305.613377 11048.804294,8271.596576 11072.798866,8238.611749 11097.259432,8194.409781 11125.200808,8156.574880 11149.093725,8129.339568 11190.750105,8062.714830 11231.771019,8032.503396 11290.804029,7933.873858 11300.937715,7906.128600 11337.866238,7765.208177 11337.734662,7741.380858 11282.887785,7573.366807 11227.372632,7395.478858 11206.083083,7354.022603 11177.715701,7322.580327 11172.680295,7311.808592 11145.224996,7198.225340 11142.390513,7171.613056 11142.856406,7145.336325 11134.840224,7100.558475 11114.341600,7060.202439 11083.733113,7031.180770 11055.341106,7001.655475 10998.254870,6928.349118 10964.009190,6871.604275 10943.621208,6824.956330 10910.027241,6793.422172 10854.915822,6779.569629 10802.434177,6772.612117 10790.743787,6764.193883 10784.608854,6752.859889 10783.747977,6739.425163 10793.704158,6674.698097 10812.532774,6637.787100 10839.533022,6606.217944 10872.736746,6578.060910 10898.988139,6561.538106 10930.832885,6544.028436 10951.610332,6544.950516 10982.515888,6549.742127 11000.379287,6544.163313 11032.924155,6525.979199 11046.125679,6511.707630 11054.349825,6498.433845 11056.900723,6478.488298 11052.026948,6457.990102 11034.303355,6432.488178 11026.547293,6419.341267 11025.297927,6412.193830 11026.731594,6401.403840 11033.200536,6385.771862 11050.599352,6360.061133 11160.529551,6086.371752 11274.267739,5760.845241 11497.569456,5283.874142 11561.128281,5117.107902 11591.096897,5042.330632 11659.387335,4857.297806 11707.708336,4618.221434 11764.936449,4373.829005 11792.987238,4283.393130 11853.066417,4126.694066 11944.845040,3922.342910 12009.311935,3798.046508 12141.650985,3605.364960 12251.502946,3407.907352 12321.712988,3208.648413 12406.433739,2968.014775 12423.063753,2900.370337 12508.545801,2647.693923 12492.794004,2604.129775 12488.215623,2551.998953 12497.396528,2500.112819 12501.038769,2481.283780 12511.912191,2443.390329 12576.910414,2274.169576 12584.280113,2258.875327 12669.659733,2093.640962"/>
    <poly id="1096796638" type="water" color="181,209,209" fill="0" layer="-4.00" shape="10872.736746,6578.060910 10842.296367,6556.278999 10827.172102,6548.088072 10816.763062,6539.204946 10793.650761,6510.660306 10786.247396,6503.104766"/>
    <poly id="1096796640" type="water" color="181,209,209" fill="0" layer="-4.00" shape="11745.969227,9966.559330 11682.947569,9906.939210 11561.137740,9799.532616 11517.848057,9775.647184 11476.898731,9767.372893 11408.132891,9763.413783 11333.952946,9753.884597 11224.908498,9722.371746 11097.726978,9658.235582 11010.764411,9593.174025 10946.866137,9531.802194 10882.598202,9460.561722 10789.926878,9375.143741 10702.932548,9311.712717 10647.363249,9277.872043 10535.620619,9212.374809 10430.165327,9144.274868 10199.092631,8995.044000 9834.868258,8724.652179 9693.718986,8608.245369 9635.516096,8536.032480 9602.556530,8468.642215 9524.378537,8248.198426 9512.832396,8184.466118 9503.482766,8137.073055"/>
    <poly id="1096796641" type="water" color="181,209,209" fill="0" layer="-4.00" shape="7912.726475,14136.777284 7818.108299,13991.425495 7558.842154,13768.996629 7381.669286,13610.775619 7192.396393,13441.762717 6910.814724,13045.958530 6652.227106,12783.026264 6478.166755,12663.423811 5183.388266,12136.840225"/>
    <poly id="1096796642" type="water" color="181,209,209" fill="0" layer="-4.00" shape="7813.027120,16723.869757 7761.291888,16535.776406 7749.004220,16436.217419 7750.217721,16320.473433 7757.037726,16213.859180 7756.832502,16178.827901 7738.838310,16090.382884 7717.056946,15983.266051 7673.901518,15776.153907 7657.463988,15677.885317 7655.096550,15592.995112 7655.318978,15486.265074 7635.577340,15387.938565 7604.958621,15313.500521 7515.045305,15103.917433 7498.669719,15033.563837 7493.509839,14982.566429 7495.711795,14731.350878 7474.437528,14563.463779 7412.775918,14281.009620 7390.513372,14137.750038 7374.761433,13779.996379 7381.669286,13610.775619"/>
    <poly id="1096796643" type="water" color="181,209,209" fill="0" layer="-4.00" shape="7632.013890,20444.510725 7792.472301,20019.200172 7831.534191,19800.999918 7845.212036,19680.853995 7846.461969,18959.530855 7771.027000,18329.475998 7743.901910,18079.660110 7738.125936,17915.700460 7813.027120,16723.869757 7918.855529,16340.403791 7963.577310,16239.387262 8025.310987,16140.853098 8123.664690,16057.191841 8251.806412,15983.629751"/>
    <poly id="1096796646" type="water" color="181,209,209" fill="1" layer="-4.00" shape="11404.191756,22893.165200 11389.658682,22808.109052 11370.429635,22818.802741 11326.617635,22810.883441 11297.435769,22785.572615 11219.438729,22741.271685 11169.864161,22706.787154 11069.766249,22676.576163 10905.471651,22583.341351 10863.192795,22559.005825 10820.119090,22506.176676 10751.710669,22434.234792 10632.605583,22276.616337 10612.056764,22296.906261 10723.975456,22425.506896 10809.817836,22524.155685 10894.978464,22606.901992 11035.705684,22713.091610 11127.058639,22759.114847 11154.371642,22779.383061 11188.215024,22816.512213 11197.659733,22852.840078 11226.535415,22890.700684 11274.088091,22938.990295 11329.881662,22887.127753 11362.748271,22885.886500 11404.191756,22893.165200"/>
    <poly id="1096796653" type="water" color="181,209,209" fill="1" layer="-4.00" shape="9437.212099,8133.300794 9427.901306,8159.421369 9420.262552,8171.066086 9380.646089,8186.513274 9304.626412,8230.850652 9283.457509,8244.717098 8904.592271,8441.110604 8911.933474,8460.354806 8835.473064,8497.228842 8816.445278,8487.475187 8648.994621,8543.305715 8147.907777,8705.311358 7916.931920,8822.067083 8044.626572,8874.326271 8099.172706,8816.431180 8298.651503,8747.649440 8538.435203,8642.334439 8558.177375,8647.069454 8688.616628,8620.883340 8856.966957,8538.385657 8847.036336,8521.012983 8926.714123,8487.420248 8935.302204,8503.483941 8947.693205,8501.807079 8958.722446,8496.416226 8961.983006,8488.495141 9298.672992,8303.028568 9428.836297,8246.181716 9447.071455,8243.821471 9457.788326,8245.107419 9466.240904,8249.035118 9437.212099,8133.300794"/>